Circuit: * C:\GrabCAD\kicad_projects\motor_controller\MCL-102 IQ100 brushless\Sim\Draft1.asc

Direct Newton iteration for .op point succeeded.
.step x=1
.step x=1e+009

Date: Sat Nov 27 14:58:34 2021
Total elapsed time: 0.158 seconds.

tnom = 27
temp = 27
method = modified trap
totiter = 2513
traniter = 2501
tranpoints = 1185
accept = 1150
rejected = 35
matrix size = 12
fillins = 0
solver = Normal
Matrix Compiler1: 544 bytes object code size  0.1/0.1/[0.1]
Matrix Compiler2: off  [0.1]/0.1/0.1

