Circuit: * C:\GrabCAD\kicad_projects\motor_controller\MCL-102 IQ100 brushless\Sim\Draft2.asc

WARNING: Less than two connections to node MGL.  This node is used by V1.
WARNING: Less than two connections to node MGH.  This node is used by V2.
.OP point found by inspection.

Date: Fri Dec 03 22:39:02 2021
Total elapsed time: 0.027 seconds.

tnom = 27
temp = 27
method = modified trap
totiter = 2304
traniter = 2304
tranpoints = 1153
accept = 1150
rejected = 3
matrix size = 4
fillins = 0
solver = Normal
Matrix Compiler1: 46 bytes object code size  0.0/0.0/[0.0]
Matrix Compiler2: off  [0.0]/0.0/0.0

